LAMMPS (10 Feb 2015)
#------------- Init Section ---------------

include "brush.init"
units 		 lj
atom_style 		 full
pair_style 		 lj/cut/coul/long 10.0 8.0
bond_style 		 harmonic
angle_style 		 harmonic
boundary 		 p p f
neighbor 		 0.5 bin
neigh_modify 		 every 1 delay 3 check yes
kspace_style 		 pppm   0.0001
kspace_modify 		 slab   3.0
pair_modify 		 mix arithmetic
dielectric 		 80.0

#------------- Particle Definitions ------------

read_data "brush.data"
  orthogonal box = (0 0 0) to (40 40 42)
  reading atoms ...
  3812 atoms
  scanning bonds ...
  scanning angles ...
  reading bonds ...
  2500 bonds
  reading angles ...
  2700 angles
#------------- Settings Section -----------

include "brush.settings"
#Non-bonded interactions (pair-wise)
pair_coeff 1 1 0.0 1.0
pair_coeff 1 2 0.0 1.0
pair_coeff 1 3 0.0 1.0
pair_coeff 1 4 0.0 1.0
pair_coeff 1 5 0.0 1.0
pair_coeff 1 6 0.0 1.0
pair_coeff 2 2 0.5 1.0
pair_coeff 2 3 0.5 1.0
pair_coeff 2 4 0.5 1.0
pair_coeff 2 5 0.5 1.0
pair_coeff 2 6 0.5 1.0
pair_coeff 3 3 0.5 1.0
pair_coeff 3 4 0.5 1.0
pair_coeff 3 5 0.5 1.0
pair_coeff 3 6 0.5 1.0
pair_coeff 4 4 0.5 1.0
pair_coeff 4 5 0.5 1.0
pair_coeff 4 6 0.5 1.0
pair_coeff 5 5 0.5 1.0
pair_coeff 5 6 0.5 1.0
pair_coeff 6 6 0.5 1.0

#Harmonic Stretching Interactions
#bond_coeff bondtype k R0
bond_coeff 1 10.0 1.0

#Harmonic Angle Interaction
angle_coeff 1 1.0 180.0
angle_coeff 2 1.0 90.0
#------------- Run Section -----------

thermo 100
thermo_style custom step dt temp press vol etotal ke pe ebond eangle evdwl ecoul elong
run_style verlet
timestep 0.01

#SIMULATION BOX FIXES

group substrates id <= 800
800 atoms in group substrates
group bot_substr id <= 400
400 atoms in group bot_substr
group top_substr subtract substrates bot_substr
400 atoms in group top_substr
group dump_group subtract all top_substr
3412 atoms in group dump_group
fix 1 substrates setforce 0.0 0.0 0.0
group not_substr subtract all substrates
3012 atoms in group not_substr
fix wall1 not_substr wall/lj126 zlo EDGE 1.0 1.0 2.5
fix wall2 not_substr wall/lj126 zhi EDGE 1.0 1.0 2.5

#Minimize the simulation box
minimize 1.0e-4 1.0e-4 2000 2000
PPPM initialization ...
  G vector (1/distance) = 0.197377
  grid = 8 8 24
  stencil order = 5
  estimated absolute RMS force accuracy = 7.15583e-05
  estimated relative force accuracy = 7.15583e-05
  3d grid and FFT values/proc = 4394 1536
  1 neighbor list requests
  update every 1 steps, delay 0 steps, check yes
Step Dt Temp Press Volume TotEng KinEng PotEng E_bond E_angle E_vdwl E_coul E_long
0         0.01            0    8.9730805        67200    39.134556            0    39.134556            0            0    39.126371 2.8993353e-05 0.0081558846
Averages over the last 6 of 12 rows, steps 600 to 1040:
Dt Temp Press Volume TotEng KinEng PotEng E_bond E_angle E_vdwl E_coul E_long
0.01 0 -0.00742761 67200 -0.556777 0 -0.556777 0.0175265 0.0375053 -0.619778 0.000170498 0.00779844
Loop time of 50.9634 on 1 procs for 1040 steps with 3812 atoms

Minimization stats:
  Stopping criterion = max force evaluations
  Energy initial, next-to-last, final =
  Force two-norm initial, final = 1.10363e+06 29.4642
  Force max component initial, final = 195074 9.1645
  Final line search alpha, max atom move = 0.00780465 0.0715257
  Iterations, force evaluations = 1040 2000

Pair  time (%) = 40.7743 (80.0071)
Bond  time (%) = 0.752481 (1.47651)
Kspce time (%) = 4.53794 (8.90432)
Neigh time (%) = 4.4879 (8.80612)
Comm  time (%) = 0.127289 (0.249766)
Outpt time (%) = 0.000420094 (0.000824304)
Other time (%) = 0.283026 (0.555351)
