LAMMPS (10 Feb 2015)
#------------- Init Section ---------------

include "brush.init"
units 		 lj
atom_style 		 full
pair_style 		 lj/cut/coul/long 10.0 8.0
bond_style 		 fene
angle_style 		 cosine/delta
boundary 		 p p f
neighbor 		 0.5 bin
neigh_modify 		 every 1 delay 3 check yes
kspace_style 		 pppm   0.0001
kspace_modify 		 slab   3.0
pair_modify 		 mix arithmetic
dielectric 		 80.0
special_bonds fene

#------------- Particle Definitions ------------

read_data "brush.data"
  orthogonal box = (0 0 0) to (40 40 42)
  reading atoms ...
  4812 atoms
  scanning bonds ...
  scanning angles ...
  reading bonds ...
  3000 bonds
  reading angles ...
  3200 angles
#------------- Settings Section -----------

include "brush.settings"
#Non-bonded interactions (pair-wise)
pair_coeff 1 1 0.0 1.0
pair_coeff 1 2 0.0 1.0
pair_coeff 1 3 0.0 1.0
pair_coeff 1 4 0.0 1.0
pair_coeff 1 5 0.0 1.0
pair_coeff 1 6 0.0 1.0
pair_coeff 1 7 0.0 1.0
pair_coeff 1 8 0.0 1.0
pair_coeff 2 2 0.5 1.0
pair_coeff 2 3 0.5 1.0
pair_coeff 2 4 0.5 1.0
pair_coeff 2 5 0.5 1.0
pair_coeff 2 6 0.5 1.0
pair_coeff 2 7 0.5 1.0
pair_coeff 2 8 0.5 1.0
pair_coeff 3 3 0.5 1.0
pair_coeff 3 4 0.5 1.0
pair_coeff 3 5 0.5 1.0
pair_coeff 3 6 0.5 1.0
pair_coeff 3 7 0.5 1.0
pair_coeff 3 8 0.5 1.0
pair_coeff 4 4 0.5 1.0
pair_coeff 4 5 0.5 1.0
pair_coeff 4 6 0.5 1.0
pair_coeff 4 7 0.5 1.0
pair_coeff 4 8 0.5 1.0
pair_coeff 5 5 0.5 1.0
pair_coeff 5 6 0.5 1.0
pair_coeff 5 7 0.5 1.0
pair_coeff 5 8 0.5 1.0
pair_coeff 6 6 0.5 1.0
pair_coeff 6 7 0.5 1.0
pair_coeff 6 8 0.5 1.0
pair_coeff 7 7 0.5 1.0
pair_coeff 7 8 0.5 1.0
pair_coeff 8 8 0.5 1.0

#FENE Stretching Interactions
#bond_coeff bondtype k R0 epsilon sigma
bond_coeff 1 30.0 1.5 1.0 1.0

#Harmonic Angle Interaction
angle_coeff 1 25.0 180.0
angle_coeff 2 25.0 90.0
#------------- Run Section -----------

thermo 100
thermo_style custom step dt temp press vol etotal ke pe ebond eangle evdwl ecoul elong
run_style verlet
timestep 0.01

#SIMULATION BOX FIXES

group substrates type 1
800 atoms in group substrates
group bot_substr id <= 400
400 atoms in group bot_substr
group top_substr subtract substrates bot_substr
400 atoms in group top_substr
group polymers type 2:4
3000 atoms in group polymers
group ctr_ions type 5:6
1000 atoms in group ctr_ions
group salt subtract all substrates polymers ctr_ions
12 atoms in group salt
group dump_group subtract all top_substr
4412 atoms in group dump_group
fix 1 substrates setforce 0.0 0.0 0.0
group not_substr subtract all substrates
4012 atoms in group not_substr
fix wall1 not_substr wall/lj126 zlo EDGE 1.0 1.0 2.5
fix wall2 not_substr wall/lj126 zhi EDGE 1.0 1.0 2.5

#Minimize the simulation box
minimize 1.0e-4 1.0e-4 2000 2000
PPPM initialization ...
  G vector (1/distance) = 0.215533
  grid = 10 10 24
  stencil order = 5
  estimated absolute RMS force accuracy = 7.21472e-05
  estimated relative force accuracy = 7.21472e-05
  3d grid and FFT values/proc = 3300 1000
  1 neighbor list requests
  update every 1 steps, delay 0 steps, check yes
Step Dt Temp Press Volume TotEng KinEng PotEng E_bond E_angle E_vdwl E_coul E_long
0         0.01            0    16.055713        67200    69.926402            0    69.926402    12.991147            0    56.935483 0.00022461787 -0.00045206714
Loop time of 0.429854 on 4 procs for 15 steps with 4812 atoms

Minimization stats:
  Stopping criterion = energy tolerance
  Energy initial, next-to-last, final =
  Force two-norm initial, final = 1.51123e+06 1168.9
  Force max component initial, final = 195143 605.968
  Final line search alpha, max atom move = 3.03784e-05 0.0184083
  Iterations, force evaluations = 15 31

Pair  time (%) = 0.175996 (40.9433)
Bond  time (%) = 0.00305688 (0.711145)
Kspce time (%) = 0.211247 (49.144)
Neigh time (%) = 0.0318642 (7.41279)
Comm  time (%) = 0.0051229 (1.19178)
Outpt time (%) = 0 (0)
Other time (%) = 0.00256622 (0.596998)

#Run NVT Equilibration
velocity not_substr create 1.2 38416003
fix 10 not_substr nve
fix 2 not_substr langevin 1.2 1.2 100.0 986537
dump 1 dump_group custom 100 equil.trj id type x y z
run 5000
PPPM initialization ...
  G vector (1/distance) = 0.215533
  grid = 10 10 24
  stencil order = 5
  estimated absolute RMS force accuracy = 7.21472e-05
  estimated relative force accuracy = 7.21472e-05
  3d grid and FFT values/proc = 3300 1000
  1 neighbor list requests
  update every 1 steps, delay 3 steps, check yes
Step Dt Temp Press Volume TotEng KinEng PotEng E_bond E_angle E_vdwl E_coul E_long
15         0.01    1.0004573  -0.21581335        67200    14.281489    1.5003741    12.781115    12.876297  0.014568061  -0.10954705 0.00024817729 -0.00045170903
Averages over the last 26 of 52 rows, steps 2600 to 5015:
Dt Temp Press Volume TotEng KinEng PotEng E_bond E_angle E_vdwl E_coul E_long
0.01 0.93694 -0.00551904 67200 14.4475 1.40512 13.0424 12.979 0.60649 -0.543157 0.000336984 -0.000246359
Loop time of 71.6856 on 4 procs for 5000 steps with 4812 atoms

Pair  time (%) = 25.7983 (35.9881)
Bond  time (%) = 0.291358 (0.406439)
Kspce time (%) = 32.1746 (44.883)
Neigh time (%) = 11.7933 (16.4515)
Comm  time (%) = 0.947362 (1.32155)
Outpt time (%) = 0.10466 (0.145999)
Other time (%) = 0.575991 (0.803497)

unfix 2
unfix 10
undump 1

#Run NVT Sampling
fix 11 not_substr nve
fix 3 not_substr langevin 1.2 1.2 100.0 39160718
dump 2 polymers custom 100 polymers.trj id type xu yu zu
dump 3 ctr_ions custom 100 ctrions.trj id type x y z
dump 4 salt custom 100 salt.trj id type x y z
run 5000
PPPM initialization ...
  G vector (1/distance) = 0.215533
  grid = 10 10 24
  stencil order = 5
  estimated absolute RMS force accuracy = 7.21472e-05
  estimated relative force accuracy = 7.21472e-05
  3d grid and FFT values/proc = 3300 1000
Step Dt Temp Press Volume TotEng KinEng PotEng E_bond E_angle E_vdwl E_coul E_long
5015         0.01   0.94730701 -0.0062521479        67200    14.472896    1.4206652     13.05223    12.999959   0.60560864  -0.55350037 0.0003533054 -0.00019029627
Averages over the last 26 of 52 rows, steps 7600 to 10015:
Dt Temp Press Volume TotEng KinEng PotEng E_bond E_angle E_vdwl E_coul E_long
0.01 0.979056 -0.00327585 67200 14.5042 1.46828 13.036 13.0043 0.637839 -0.606281 0.000358761 -0.000249967
Loop time of 71.0085 on 4 procs for 5000 steps with 4812 atoms

Pair  time (%) = 27.4349 (38.6361)
Bond  time (%) = 0.290135 (0.408592)
Kspce time (%) = 31.4698 (44.3183)
Neigh time (%) = 10.3179 (14.5305)
Comm  time (%) = 0.828865 (1.16727)
Outpt time (%) = 0.0926234 (0.13044)
Other time (%) = 0.574349 (0.808845)

unfix 3
unfix 11
undump 2

undump 3
undump 4
